<?xml version="1.0" encoding="UTF-8"?>
<edges>
    <!-- East-West -->
    <edge id="W_in"  from="W_entry" to="W_junc" numLanes="2" speed="13.89"/>
    <edge id="WC"    from="W_junc"  to="center"  numLanes="2" speed="13.89"/>
    <edge id="CE"    from="center"   to="E_junc"  numLanes="2" speed="13.89"/>
    <edge id="E_out" from="E_junc"  to="E_entry" numLanes="2" speed="13.89"/>

    <edge id="E_in"  from="E_entry" to="E_junc"  numLanes="2" speed="13.89"/>
    <edge id="EC"    from="E_junc"  to="center"   numLanes="2" speed="13.89"/>
    <edge id="CW"    from="center"   to="W_junc"  numLanes="2" speed="13.89"/>
    <edge id="W_out" from="W_junc"  to="W_entry" numLanes="2" speed="13.89"/>

    <!-- North-South -->
    <edge id="N_in"  from="N_entry" to="N_junc"  numLanes="2" speed="13.89"/>
    <edge id="NC"    from="N_junc"  to="center"   numLanes="2" speed="13.89"/>
    <edge id="CS"    from="center"   to="S_junc"  numLanes="2" speed="13.89"/>
    <edge id="S_out" from="S_junc"  to="S_entry" numLanes="2" speed="13.89"/>

    <edge id="S_in"  from="S_entry" to="S_junc"  numLanes="2" speed="13.89"/>
    <edge id="SC"    from="S_junc"  to="center"   numLanes="2" speed="13.89"/>
    <edge id="CN"    from="center"   to="N_junc"  numLanes="2" speed="13.89"/>
    <edge id="N_out" from="N_junc"  to="N_entry" numLanes="2" speed="13.89"/>
</edges>
