<?xml version="1.0" encoding="UTF-8"?>

<!-- generated on 2026-03-06T18:04:31.165755+05:30 by Eclipse SUMO netconvert 1.26.0
<netconvertConfiguration xmlns:xsi="http://www.w3.org/2001/XMLSchema-instance" xsi:noNamespaceSchemaLocation="http://sumo.dlr.de/xsd/netconvertConfiguration.xsd">

    <input>
        <node-files value="simulation/sumo/nodes.nod.xml"/>
        <edge-files value="simulation/sumo/edges.edg.xml"/>
    </input>

    <output>
        <output-file value="simulation/sumo/network.net.xml"/>
    </output>

    <junctions>
        <no-turnarounds value="true"/>
    </junctions>

</netconvertConfiguration>
-->

<net version="1.20" junctionCornerDetail="5" limitTurnSpeed="5.50" xmlns:xsi="http://www.w3.org/2001/XMLSchema-instance" xsi:noNamespaceSchemaLocation="http://sumo.dlr.de/xsd/net_file.xsd">

    <location netOffset="200.00,200.00" convBoundary="0.00,0.00,400.00,400.00" origBoundary="-200.00,-200.00,200.00,200.00" projParameter="!"/>

    <edge id=":E_junc_0" function="internal">
        <lane id=":E_junc_0_0" index="0" speed="13.89" length="0.10" shape="250.00,204.80 250.00,204.80"/>
        <lane id=":E_junc_0_1" index="1" speed="13.89" length="0.10" shape="250.00,201.60 250.00,201.60"/>
    </edge>
    <edge id=":E_junc_2" function="internal">
        <lane id=":E_junc_2_0" index="0" speed="13.89" length="0.10" shape="250.00,195.20 250.00,195.20"/>
        <lane id=":E_junc_2_1" index="1" speed="13.89" length="0.10" shape="250.00,198.40 250.00,198.40"/>
    </edge>
    <edge id=":N_junc_0" function="internal">
        <lane id=":N_junc_0_0" index="0" speed="13.89" length="0.10" shape="195.20,250.00 195.20,250.00"/>
        <lane id=":N_junc_0_1" index="1" speed="13.89" length="0.10" shape="198.40,250.00 198.40,250.00"/>
    </edge>
    <edge id=":N_junc_2" function="internal">
        <lane id=":N_junc_2_0" index="0" speed="13.89" length="0.10" shape="204.80,250.00 204.80,250.00"/>
        <lane id=":N_junc_2_1" index="1" speed="13.89" length="0.10" shape="201.60,250.00 201.60,250.00"/>
    </edge>
    <edge id=":S_junc_0" function="internal">
        <lane id=":S_junc_0_0" index="0" speed="13.89" length="0.10" shape="195.20,150.00 195.20,150.00"/>
        <lane id=":S_junc_0_1" index="1" speed="13.89" length="0.10" shape="198.40,150.00 198.40,150.00"/>
    </edge>
    <edge id=":S_junc_2" function="internal">
        <lane id=":S_junc_2_0" index="0" speed="13.89" length="0.10" shape="204.80,150.00 204.80,150.00"/>
        <lane id=":S_junc_2_1" index="1" speed="13.89" length="0.10" shape="201.60,150.00 201.60,150.00"/>
    </edge>
    <edge id=":W_junc_0" function="internal">
        <lane id=":W_junc_0_0" index="0" speed="13.89" length="0.10" shape="150.00,204.80 150.00,204.80"/>
        <lane id=":W_junc_0_1" index="1" speed="13.89" length="0.10" shape="150.00,201.60 150.00,201.60"/>
    </edge>
    <edge id=":W_junc_2" function="internal">
        <lane id=":W_junc_2_0" index="0" speed="13.89" length="0.10" shape="150.00,195.20 150.00,195.20"/>
        <lane id=":W_junc_2_1" index="1" speed="13.89" length="0.10" shape="150.00,198.40 150.00,198.40"/>
    </edge>
    <edge id=":center_0" function="internal">
        <lane id=":center_0_0" index="0" speed="6.51" length="9.03" shape="195.20,210.40 194.85,207.95 193.80,206.20 192.05,205.15 189.60,204.80"/>
    </edge>
    <edge id=":center_1" function="internal">
        <lane id=":center_1_0" index="0" speed="13.89" length="20.80" shape="195.20,210.40 195.20,189.60"/>
        <lane id=":center_1_1" index="1" speed="13.89" length="20.80" shape="198.40,210.40 198.40,189.60"/>
    </edge>
    <edge id=":center_3" function="internal">
        <lane id=":center_3_0" index="0" speed="9.26" length="5.01" shape="198.40,210.40 199.11,205.44"/>
    </edge>
    <edge id=":center_16" function="internal">
        <lane id=":center_16_0" index="0" speed="9.26" length="14.34" shape="199.11,205.44 199.15,205.15 201.40,201.40 205.15,199.15 210.40,198.40"/>
    </edge>
    <edge id=":center_4" function="internal">
        <lane id=":center_4_0" index="0" speed="6.51" length="9.03" shape="210.40,204.80 207.95,205.15 206.20,206.20 205.15,207.95 204.80,210.40"/>
    </edge>
    <edge id=":center_5" function="internal">
        <lane id=":center_5_0" index="0" speed="13.89" length="20.80" shape="210.40,204.80 189.60,204.80"/>
        <lane id=":center_5_1" index="1" speed="13.89" length="20.80" shape="210.40,201.60 189.60,201.60"/>
    </edge>
    <edge id=":center_7" function="internal">
        <lane id=":center_7_0" index="0" speed="9.26" length="5.01" shape="210.40,201.60 205.44,200.89"/>
    </edge>
    <edge id=":center_17" function="internal">
        <lane id=":center_17_0" index="0" speed="9.26" length="14.34" shape="205.44,200.89 205.15,200.85 201.40,198.60 199.15,194.85 198.40,189.60"/>
    </edge>
    <edge id=":center_8" function="internal">
        <lane id=":center_8_0" index="0" speed="6.51" length="9.03" shape="204.80,189.60 205.15,192.05 206.20,193.80 207.95,194.85 210.40,195.20"/>
    </edge>
    <edge id=":center_9" function="internal">
        <lane id=":center_9_0" index="0" speed="13.89" length="20.80" shape="204.80,189.60 204.80,210.40"/>
        <lane id=":center_9_1" index="1" speed="13.89" length="20.80" shape="201.60,189.60 201.60,210.40"/>
    </edge>
    <edge id=":center_11" function="internal">
        <lane id=":center_11_0" index="0" speed="9.26" length="5.01" shape="201.60,189.60 200.89,194.56"/>
    </edge>
    <edge id=":center_18" function="internal">
        <lane id=":center_18_0" index="0" speed="9.26" length="14.34" shape="200.89,194.56 200.85,194.85 198.60,198.60 194.85,200.85 189.60,201.60"/>
    </edge>
    <edge id=":center_12" function="internal">
        <lane id=":center_12_0" index="0" speed="6.51" length="9.03" shape="189.60,195.20 192.05,194.85 193.80,193.80 194.85,192.05 195.20,189.60"/>
    </edge>
    <edge id=":center_13" function="internal">
        <lane id=":center_13_0" index="0" speed="13.89" length="20.80" shape="189.60,195.20 210.40,195.20"/>
        <lane id=":center_13_1" index="1" speed="13.89" length="20.80" shape="189.60,198.40 210.40,198.40"/>
    </edge>
    <edge id=":center_15" function="internal">
        <lane id=":center_15_0" index="0" speed="9.26" length="5.01" shape="189.60,198.40 194.56,199.11"/>
    </edge>
    <edge id=":center_19" function="internal">
        <lane id=":center_19_0" index="0" speed="9.26" length="14.34" shape="194.56,199.11 194.85,199.15 198.60,201.40 200.85,205.15 201.60,210.40"/>
    </edge>

    <edge id="CE" from="center" to="E_junc" priority="-1">
        <lane id="CE_0" index="0" speed="13.89" length="39.60" shape="210.40,195.20 250.00,195.20"/>
        <lane id="CE_1" index="1" speed="13.89" length="39.60" shape="210.40,198.40 250.00,198.40"/>
    </edge>
    <edge id="CN" from="center" to="N_junc" priority="-1">
        <lane id="CN_0" index="0" speed="13.89" length="39.60" shape="204.80,210.40 204.80,250.00"/>
        <lane id="CN_1" index="1" speed="13.89" length="39.60" shape="201.60,210.40 201.60,250.00"/>
    </edge>
    <edge id="CS" from="center" to="S_junc" priority="-1">
        <lane id="CS_0" index="0" speed="13.89" length="39.60" shape="195.20,189.60 195.20,150.00"/>
        <lane id="CS_1" index="1" speed="13.89" length="39.60" shape="198.40,189.60 198.40,150.00"/>
    </edge>
    <edge id="CW" from="center" to="W_junc" priority="-1">
        <lane id="CW_0" index="0" speed="13.89" length="39.60" shape="189.60,204.80 150.00,204.80"/>
        <lane id="CW_1" index="1" speed="13.89" length="39.60" shape="189.60,201.60 150.00,201.60"/>
    </edge>
    <edge id="EC" from="E_junc" to="center" priority="-1">
        <lane id="EC_0" index="0" speed="13.89" length="39.60" shape="250.00,204.80 210.40,204.80"/>
        <lane id="EC_1" index="1" speed="13.89" length="39.60" shape="250.00,201.60 210.40,201.60"/>
    </edge>
    <edge id="E_in" from="E_entry" to="E_junc" priority="-1">
        <lane id="E_in_0" index="0" speed="13.89" length="150.00" shape="400.00,204.80 250.00,204.80"/>
        <lane id="E_in_1" index="1" speed="13.89" length="150.00" shape="400.00,201.60 250.00,201.60"/>
    </edge>
    <edge id="E_out" from="E_junc" to="E_entry" priority="-1">
        <lane id="E_out_0" index="0" speed="13.89" length="150.00" shape="250.00,195.20 400.00,195.20"/>
        <lane id="E_out_1" index="1" speed="13.89" length="150.00" shape="250.00,198.40 400.00,198.40"/>
    </edge>
    <edge id="NC" from="N_junc" to="center" priority="-1">
        <lane id="NC_0" index="0" speed="13.89" length="39.60" shape="195.20,250.00 195.20,210.40"/>
        <lane id="NC_1" index="1" speed="13.89" length="39.60" shape="198.40,250.00 198.40,210.40"/>
    </edge>
    <edge id="N_in" from="N_entry" to="N_junc" priority="-1">
        <lane id="N_in_0" index="0" speed="13.89" length="150.00" shape="195.20,400.00 195.20,250.00"/>
        <lane id="N_in_1" index="1" speed="13.89" length="150.00" shape="198.40,400.00 198.40,250.00"/>
    </edge>
    <edge id="N_out" from="N_junc" to="N_entry" priority="-1">
        <lane id="N_out_0" index="0" speed="13.89" length="150.00" shape="204.80,250.00 204.80,400.00"/>
        <lane id="N_out_1" index="1" speed="13.89" length="150.00" shape="201.60,250.00 201.60,400.00"/>
    </edge>
    <edge id="SC" from="S_junc" to="center" priority="-1">
        <lane id="SC_0" index="0" speed="13.89" length="39.60" shape="204.80,150.00 204.80,189.60"/>
        <lane id="SC_1" index="1" speed="13.89" length="39.60" shape="201.60,150.00 201.60,189.60"/>
    </edge>
    <edge id="S_in" from="S_entry" to="S_junc" priority="-1">
        <lane id="S_in_0" index="0" speed="13.89" length="150.00" shape="204.80,0.00 204.80,150.00"/>
        <lane id="S_in_1" index="1" speed="13.89" length="150.00" shape="201.60,0.00 201.60,150.00"/>
    </edge>
    <edge id="S_out" from="S_junc" to="S_entry" priority="-1">
        <lane id="S_out_0" index="0" speed="13.89" length="150.00" shape="195.20,150.00 195.20,0.00"/>
        <lane id="S_out_1" index="1" speed="13.89" length="150.00" shape="198.40,150.00 198.40,0.00"/>
    </edge>
    <edge id="WC" from="W_junc" to="center" priority="-1">
        <lane id="WC_0" index="0" speed="13.89" length="39.60" shape="150.00,195.20 189.60,195.20"/>
        <lane id="WC_1" index="1" speed="13.89" length="39.60" shape="150.00,198.40 189.60,198.40"/>
    </edge>
    <edge id="W_in" from="W_entry" to="W_junc" priority="-1">
        <lane id="W_in_0" index="0" speed="13.89" length="150.00" shape="0.00,195.20 150.00,195.20"/>
        <lane id="W_in_1" index="1" speed="13.89" length="150.00" shape="0.00,198.40 150.00,198.40"/>
    </edge>
    <edge id="W_out" from="W_junc" to="W_entry" priority="-1">
        <lane id="W_out_0" index="0" speed="13.89" length="150.00" shape="150.00,204.80 0.00,204.80"/>
        <lane id="W_out_1" index="1" speed="13.89" length="150.00" shape="150.00,201.60 0.00,201.60"/>
    </edge>

    <tlLogic id="center" type="static" programID="0" offset="0">
        <phase duration="42" state="GGGgrrrrGGGgrrrr"/>
        <phase duration="3"  state="yyyyrrrryyyyrrrr"/>
        <phase duration="42" state="rrrrGGGgrrrrGGGg"/>
        <phase duration="3"  state="rrrryyyyrrrryyyy"/>
    </tlLogic>

    <junction id="E_entry" type="dead_end" x="400.00" y="200.00" incLanes="E_out_0 E_out_1" intLanes="" shape="400.00,200.00 400.00,193.60 400.00,200.00"/>
    <junction id="E_junc" type="priority" x="250.00" y="200.00" incLanes="E_in_0 E_in_1 CE_0 CE_1" intLanes=":E_junc_0_0 :E_junc_0_1 :E_junc_2_0 :E_junc_2_1" shape="250.00,206.40 250.00,193.60 250.00,206.40">
        <request index="0" response="0000" foes="0000" cont="0"/>
        <request index="1" response="0000" foes="0000" cont="0"/>
        <request index="2" response="0000" foes="0000" cont="0"/>
        <request index="3" response="0000" foes="0000" cont="0"/>
    </junction>
    <junction id="N_entry" type="dead_end" x="200.00" y="400.00" incLanes="N_out_0 N_out_1" intLanes="" shape="200.00,400.00 206.40,400.00 200.00,400.00"/>
    <junction id="N_junc" type="priority" x="200.00" y="250.00" incLanes="N_in_0 N_in_1 CN_0 CN_1" intLanes=":N_junc_0_0 :N_junc_0_1 :N_junc_2_0 :N_junc_2_1" shape="193.60,250.00 206.40,250.00 193.60,250.00">
        <request index="0" response="0000" foes="0000" cont="0"/>
        <request index="1" response="0000" foes="0000" cont="0"/>
        <request index="2" response="0000" foes="0000" cont="0"/>
        <request index="3" response="0000" foes="0000" cont="0"/>
    </junction>
    <junction id="S_entry" type="dead_end" x="200.00" y="0.00" incLanes="S_out_0 S_out_1" intLanes="" shape="200.00,0.00 193.60,0.00 200.00,0.00"/>
    <junction id="S_junc" type="priority" x="200.00" y="150.00" incLanes="CS_0 CS_1 S_in_0 S_in_1" intLanes=":S_junc_0_0 :S_junc_0_1 :S_junc_2_0 :S_junc_2_1" shape="193.60,150.00 206.40,150.00 193.60,150.00">
        <request index="0" response="0000" foes="0000" cont="0"/>
        <request index="1" response="0000" foes="0000" cont="0"/>
        <request index="2" response="0000" foes="0000" cont="0"/>
        <request index="3" response="0000" foes="0000" cont="0"/>
    </junction>
    <junction id="W_entry" type="dead_end" x="0.00" y="200.00" incLanes="W_out_0 W_out_1" intLanes="" shape="0.00,200.00 0.00,206.40 0.00,200.00"/>
    <junction id="W_junc" type="priority" x="150.00" y="200.00" incLanes="CW_0 CW_1 W_in_0 W_in_1" intLanes=":W_junc_0_0 :W_junc_0_1 :W_junc_2_0 :W_junc_2_1" shape="150.00,206.40 150.00,193.60 150.00,206.40">
        <request index="0" response="0000" foes="0000" cont="0"/>
        <request index="1" response="0000" foes="0000" cont="0"/>
        <request index="2" response="0000" foes="0000" cont="0"/>
        <request index="3" response="0000" foes="0000" cont="0"/>
    </junction>
    <junction id="center" type="traffic_light" x="200.00" y="200.00" incLanes="NC_0 NC_1 EC_0 EC_1 SC_0 SC_1 WC_0 WC_1" intLanes=":center_0_0 :center_1_0 :center_1_1 :center_16_0 :center_4_0 :center_5_0 :center_5_1 :center_17_0 :center_8_0 :center_9_0 :center_9_1 :center_18_0 :center_12_0 :center_13_0 :center_13_1 :center_19_0" shape="193.60,210.40 206.40,210.40 206.84,208.18 207.40,207.40 208.18,206.84 209.18,206.51 210.40,206.40 210.40,193.60 208.18,193.16 207.40,192.60 206.84,191.82 206.51,190.82 206.40,189.60 193.60,189.60 193.16,191.82 192.60,192.60 191.82,193.16 190.82,193.49 189.60,193.60 189.60,206.40 191.82,206.84 192.60,207.40 193.16,208.18 193.49,209.18">
        <request index="0"  response="0000000000000000" foes="0000000001100000" cont="0"/>
        <request index="1"  response="1000000000000000" foes="1111100011100000" cont="0"/>
        <request index="2"  response="1000000010000000" foes="1111100011100000" cont="0"/>
        <request index="3"  response="1000011010000000" foes="1110011011100000" cont="1"/>
        <request index="4"  response="0000011000000000" foes="0000011000000000" cont="0"/>
        <request index="5"  response="0000111000001111" foes="1000111000001111" cont="0"/>
        <request index="6"  response="0000111000001111" foes="1000111000001111" cont="0"/>
        <request index="7"  response="0110111000001110" foes="0110111000001110" cont="1"/>
        <request index="8"  response="0000000000000000" foes="0110000000000000" cont="0"/>
        <request index="9"  response="0000000010000000" foes="1110000011111000" cont="0"/>
        <request index="10" response="1000000010000000" foes="1110000011111000" cont="0"/>
        <request index="11" response="1000000010000110" foes="1110000011100110" cont="1"/>
        <request index="12" response="0000000000000110" foes="0000000000000110" cont="0"/>
        <request index="13" response="0000111100001110" foes="0000111110001110" cont="0"/>
        <request index="14" response="0000111100001110" foes="0000111110001110" cont="0"/>
        <request index="15" response="0000111001101110" foes="0000111001101110" cont="1"/>
    </junction>

    <junction id=":center_16_0" type="internal" x="199.11" y="205.44" incLanes=":center_3_0 SC_0 SC_1" intLanes=":center_5_0 :center_5_1 :center_7_0 :center_8_0 :center_9_0 :center_9_1 :center_13_0 :center_13_1 :center_15_0"/>
    <junction id=":center_17_0" type="internal" x="205.44" y="200.89" incLanes=":center_7_0 WC_0 WC_1" intLanes=":center_1_0 :center_1_1 :center_3_0 :center_9_0 :center_9_1 :center_11_0 :center_12_0 :center_13_0 :center_13_1"/>
    <junction id=":center_18_0" type="internal" x="200.89" y="194.56" incLanes=":center_11_0 NC_0 NC_1" intLanes=":center_0_0 :center_1_0 :center_1_1 :center_5_0 :center_5_1 :center_7_0 :center_13_0 :center_13_1 :center_15_0"/>
    <junction id=":center_19_0" type="internal" x="194.56" y="199.11" incLanes=":center_15_0 EC_0 EC_1" intLanes=":center_1_0 :center_1_1 :center_3_0 :center_4_0 :center_5_0 :center_5_1 :center_9_0 :center_9_1 :center_11_0"/>

    <connection from="CE" to="E_out" fromLane="0" toLane="0" via=":E_junc_2_0" dir="s" state="M"/>
    <connection from="CE" to="E_out" fromLane="1" toLane="1" via=":E_junc_2_1" dir="s" state="M"/>
    <connection from="CN" to="N_out" fromLane="0" toLane="0" via=":N_junc_2_0" dir="s" state="M"/>
    <connection from="CN" to="N_out" fromLane="1" toLane="1" via=":N_junc_2_1" dir="s" state="M"/>
    <connection from="CS" to="S_out" fromLane="0" toLane="0" via=":S_junc_0_0" dir="s" state="M"/>
    <connection from="CS" to="S_out" fromLane="1" toLane="1" via=":S_junc_0_1" dir="s" state="M"/>
    <connection from="CW" to="W_out" fromLane="0" toLane="0" via=":W_junc_0_0" dir="s" state="M"/>
    <connection from="CW" to="W_out" fromLane="1" toLane="1" via=":W_junc_0_1" dir="s" state="M"/>
    <connection from="EC" to="CN" fromLane="0" toLane="0" via=":center_4_0" tl="center" linkIndex="4" dir="r" state="o"/>
    <connection from="EC" to="CW" fromLane="0" toLane="0" via=":center_5_0" tl="center" linkIndex="5" dir="s" state="o"/>
    <connection from="EC" to="CW" fromLane="1" toLane="1" via=":center_5_1" tl="center" linkIndex="6" dir="s" state="o"/>
    <connection from="EC" to="CS" fromLane="1" toLane="1" via=":center_7_0" tl="center" linkIndex="7" dir="l" state="o"/>
    <connection from="E_in" to="EC" fromLane="0" toLane="0" via=":E_junc_0_0" dir="s" state="M"/>
    <connection from="E_in" to="EC" fromLane="1" toLane="1" via=":E_junc_0_1" dir="s" state="M"/>
    <connection from="NC" to="CW" fromLane="0" toLane="0" via=":center_0_0" tl="center" linkIndex="0" dir="r" state="O"/>
    <connection from="NC" to="CS" fromLane="0" toLane="0" via=":center_1_0" tl="center" linkIndex="1" dir="s" state="O"/>
    <connection from="NC" to="CS" fromLane="1" toLane="1" via=":center_1_1" tl="center" linkIndex="2" dir="s" state="O"/>
    <connection from="NC" to="CE" fromLane="1" toLane="1" via=":center_3_0" tl="center" linkIndex="3" dir="l" state="o"/>
    <connection from="N_in" to="NC" fromLane="0" toLane="0" via=":N_junc_0_0" dir="s" state="M"/>
    <connection from="N_in" to="NC" fromLane="1" toLane="1" via=":N_junc_0_1" dir="s" state="M"/>
    <connection from="SC" to="CE" fromLane="0" toLane="0" via=":center_8_0" tl="center" linkIndex="8" dir="r" state="O"/>
    <connection from="SC" to="CN" fromLane="0" toLane="0" via=":center_9_0" tl="center" linkIndex="9" dir="s" state="O"/>
    <connection from="SC" to="CN" fromLane="1" toLane="1" via=":center_9_1" tl="center" linkIndex="10" dir="s" state="O"/>
    <connection from="SC" to="CW" fromLane="1" toLane="1" via=":center_11_0" tl="center" linkIndex="11" dir="l" state="o"/>
    <connection from="S_in" to="SC" fromLane="0" toLane="0" via=":S_junc_2_0" dir="s" state="M"/>
    <connection from="S_in" to="SC" fromLane="1" toLane="1" via=":S_junc_2_1" dir="s" state="M"/>
    <connection from="WC" to="CS" fromLane="0" toLane="0" via=":center_12_0" tl="center" linkIndex="12" dir="r" state="o"/>
    <connection from="WC" to="CE" fromLane="0" toLane="0" via=":center_13_0" tl="center" linkIndex="13" dir="s" state="o"/>
    <connection from="WC" to="CE" fromLane="1" toLane="1" via=":center_13_1" tl="center" linkIndex="14" dir="s" state="o"/>
    <connection from="WC" to="CN" fromLane="1" toLane="1" via=":center_15_0" tl="center" linkIndex="15" dir="l" state="o"/>
    <connection from="W_in" to="WC" fromLane="0" toLane="0" via=":W_junc_2_0" dir="s" state="M"/>
    <connection from="W_in" to="WC" fromLane="1" toLane="1" via=":W_junc_2_1" dir="s" state="M"/>

    <connection from=":E_junc_0" to="EC" fromLane="0" toLane="0" dir="s" state="M"/>
    <connection from=":E_junc_0" to="EC" fromLane="1" toLane="1" dir="s" state="M"/>
    <connection from=":E_junc_2" to="E_out" fromLane="0" toLane="0" dir="s" state="M"/>
    <connection from=":E_junc_2" to="E_out" fromLane="1" toLane="1" dir="s" state="M"/>
    <connection from=":N_junc_0" to="NC" fromLane="0" toLane="0" dir="s" state="M"/>
    <connection from=":N_junc_0" to="NC" fromLane="1" toLane="1" dir="s" state="M"/>
    <connection from=":N_junc_2" to="N_out" fromLane="0" toLane="0" dir="s" state="M"/>
    <connection from=":N_junc_2" to="N_out" fromLane="1" toLane="1" dir="s" state="M"/>
    <connection from=":S_junc_0" to="S_out" fromLane="0" toLane="0" dir="s" state="M"/>
    <connection from=":S_junc_0" to="S_out" fromLane="1" toLane="1" dir="s" state="M"/>
    <connection from=":S_junc_2" to="SC" fromLane="0" toLane="0" dir="s" state="M"/>
    <connection from=":S_junc_2" to="SC" fromLane="1" toLane="1" dir="s" state="M"/>
    <connection from=":W_junc_0" to="W_out" fromLane="0" toLane="0" dir="s" state="M"/>
    <connection from=":W_junc_0" to="W_out" fromLane="1" toLane="1" dir="s" state="M"/>
    <connection from=":W_junc_2" to="WC" fromLane="0" toLane="0" dir="s" state="M"/>
    <connection from=":W_junc_2" to="WC" fromLane="1" toLane="1" dir="s" state="M"/>
    <connection from=":center_0" to="CW" fromLane="0" toLane="0" dir="r" state="M"/>
    <connection from=":center_1" to="CS" fromLane="0" toLane="0" dir="s" state="M"/>
    <connection from=":center_1" to="CS" fromLane="1" toLane="1" dir="s" state="M"/>
    <connection from=":center_3" to="CE" fromLane="0" toLane="1" via=":center_16_0" dir="l" state="m"/>
    <connection from=":center_16" to="CE" fromLane="0" toLane="1" dir="l" state="M"/>
    <connection from=":center_4" to="CN" fromLane="0" toLane="0" dir="r" state="M"/>
    <connection from=":center_5" to="CW" fromLane="0" toLane="0" dir="s" state="M"/>
    <connection from=":center_5" to="CW" fromLane="1" toLane="1" dir="s" state="M"/>
    <connection from=":center_7" to="CS" fromLane="0" toLane="1" via=":center_17_0" dir="l" state="m"/>
    <connection from=":center_17" to="CS" fromLane="0" toLane="1" dir="l" state="M"/>
    <connection from=":center_8" to="CE" fromLane="0" toLane="0" dir="r" state="M"/>
    <connection from=":center_9" to="CN" fromLane="0" toLane="0" dir="s" state="M"/>
    <connection from=":center_9" to="CN" fromLane="1" toLane="1" dir="s" state="M"/>
    <connection from=":center_11" to="CW" fromLane="0" toLane="1" via=":center_18_0" dir="l" state="m"/>
    <connection from=":center_18" to="CW" fromLane="0" toLane="1" dir="l" state="M"/>
    <connection from=":center_12" to="CS" fromLane="0" toLane="0" dir="r" state="M"/>
    <connection from=":center_13" to="CE" fromLane="0" toLane="0" dir="s" state="M"/>
    <connection from=":center_13" to="CE" fromLane="1" toLane="1" dir="s" state="M"/>
    <connection from=":center_15" to="CN" fromLane="0" toLane="1" via=":center_19_0" dir="l" state="m"/>
    <connection from=":center_19" to="CN" fromLane="0" toLane="1" dir="l" state="M"/>

</net>
