<?xml version="1.0" encoding="UTF-8"?>
<configuration>
    <input>
        <net-file value="network.net.xml"/>
        <route-files value="routes.rou.xml"/>
    </input>
    <time>
        <begin value="0"/>
        <end value="150"/>
        <step-length value="0.1"/>
    </time>
    <processing>
        <lateral-resolution value="0.8"/>
    </processing>
</configuration>
